&nam_rebuild
filebase='BASE'
ndomain=NB
ndigits=DIGITS
